@<TRIPOS>MOLECULE
atp/ip3rt2_atp_hetb.pdb
 47 49 0 0 0
SMALL
GASTEIGER

@<TRIPOS>ATOM
      1  C01      192.5710  201.5340  234.2840 C.ar 2702  ATP2702     0.1205
      2  C03      192.2960  199.7470  232.8480 C.ar 2702  ATP2702     0.1472
      3  C04      191.0130  199.5320  233.3640 C.ar 2702  ATP2702     0.1473
      4  C05      190.5710  200.3730  234.3550 C.ar 2702  ATP2702     0.1674
      5  C08      189.0260  198.9250  233.9200 C.ar 2702  ATP2702     0.1004
      6  C10      188.4730  200.5810  235.6970 C.3  2702  ATP2702     0.1667
      7  C11      187.9790  201.6930  235.2300 C.3  2702  ATP2702     0.1285
      8  C12      186.3920  201.7630  235.7810 C.3  2702  ATP2702     0.1135
      9  C13      185.9710  200.5840  235.7350 C.3  2702  ATP2702     0.1134
     10  C15      185.3800  200.2620  234.3420 C.3  2702  ATP2702     0.0879
     11  N02      193.0270  200.7400  233.3260 N.ar 2702  ATP2702    -0.2188
     12  N06      191.3650  201.3580  234.7930 N.ar 2702  ATP2702    -0.2159
     13  N07      189.3370  199.9630  234.6730 N.ar 2702  ATP2702    -0.2855
     14  N09      190.0380  198.6470  233.1160 N.ar 2702  ATP2702    -0.2306
     15  N31      192.8170  198.8930  231.8000 N.pl32702  ATP2702    -0.3413
     16  O14      187.2720  199.6720  235.9970 O.3  2702  ATP2702    -0.3456
     17  O16      184.9250  198.9420  234.3670 O.3  2702  ATP2702    -0.2837
     18  O18      183.0890  197.2290  233.7990 O.3  2702  ATP2702    -0.3022
     19  O19      182.7540  199.5720  233.1330 O.2  2702  ATP2702    -0.2269
     20  O20      182.5520  198.9590  235.6330 O.3  2702  ATP2702    -0.1858
     21  O22      180.0470  199.4560  235.9680 O.2  2702  ATP2702    -0.2265
     22  O23      181.6910  200.8830  237.1150 O.3  2702  ATP2702    -0.3019
     23  O24      181.3900  201.1540  234.5740 O.3  2702  ATP2702    -0.1859
     24  O26      179.3070  202.6280  234.9270 O.3  2702  ATP2702    -0.3023
     25  O27      181.0450  203.4020  233.3600 O.2  2702  ATP2702    -0.2271
     26  O28      181.4790  203.4270  235.7870 O.3  2702  ATP2702    -0.3023
     27  O29      186.3690  202.2480  237.1570 O.3  2702  ATP2702    -0.3864
     28  O30      188.7170  202.8030  235.7380 O.3  2702  ATP2702    -0.3847
     29  P17      183.3110  198.6660  234.2020 P.3  2702  ATP2702     0.4835
     30  P21      181.3990  200.1150  235.8500 P.3  2702  ATP2702     0.4918
     31  P25      180.7930  202.6860  234.6650 P.3  2702  ATP2702     0.4808
     32 H011      193.1960  202.3370  234.6530 H    2702  ATP2702     0.1048
     33 H081      188.0880  198.3830  233.9570 H    2702  ATP2702     0.1030
     34 H101      189.0340  200.7730  236.6050 H    2702  ATP2702     0.0866
     35 H111      187.9990  201.6860  234.1450 H    2702  ATP2702     0.0665
     36 H121      185.8010  202.4070  235.1400 H    2702  ATP2702     0.0647
     37 H131      185.2330  200.4180  236.5130 H    2702  ATP2702     0.0647
     38 H151      184.5510  200.9280  234.1230 H    2702  ATP2702     0.0592
     39 H152      186.1470  200.3700  233.5830 H    2702  ATP2702     0.0592
     40 H291      185.4840  202.4720  237.3960 H    2702  ATP2702     0.2100
     41 H301      188.2530  203.1800  236.4700 H    2702  ATP2702     0.2101
     42 H311      192.2810  198.1080  231.4820 H    2702  ATP2702     0.1438
     43 H312      193.7120  199.0870  231.3920 H    2702  ATP2702     0.1438
     44 H         183.5364  197.0569  232.9557 H    2702  ATP2702     0.2220
     45 H         182.5599  201.3079  237.0420 H    2702  ATP2702     0.2220
     46 H         178.8696  202.1513  234.2043 H    2702  ATP2702     0.2220
     47 H         182.4330  203.4623  235.6154 H    2702  ATP2702     0.2220
@<TRIPOS>BOND
     1    43    15    1
     2    42    15    1
     3    15     2    1
     4     2    11   ar
     5     2     3   ar
     6    14     3   ar
     7    14     5   ar
     8    19    29    2
     9    11     1   ar
    10    25    31    2
    11     3     4   ar
    12    39    10    1
    13    18    29    1
    14     5    33    1
    15     5    13   ar
    16    38    10    1
    17    35     7    1
    18    29    17    1
    19    29    20    1
    20     1    32    1
    21     1    12   ar
    22    10    17    1
    23    10     9    1
    24     4    13   ar
    25     4    12   ar
    26    23    31    1
    27    23    30    1
    28    31    24    1
    29    31    26    1
    30    13     6    1
    31    36     8    1
    32     7     6    1
    33     7    28    1
    34     7     8    1
    35    20    30    1
    36     6    16    1
    37     6    34    1
    38     9     8    1
    39     9    16    1
    40     9    37    1
    41    28    41    1
    42     8    27    1
    43    30    21    2
    44    30    22    1
    45    27    40    1
    46    18    44    1
    47    22    45    1
    48    24    46    1
    49    26    47    1
