@<TRIPOS>MOLECULE
amp/ip3r_jd_amp_2_hetb.pdb
 37 39 0 0 0
SMALL
GASTEIGER

@<TRIPOS>ATOM
      1  C01      192.5710  201.5340  234.2840 C.ar 2702  AMP2702     0.1205
      2  C03      192.2960  199.7470  232.8480 C.ar 2702  AMP2702     0.1472
      3  C04      191.0130  199.5320  233.3640 C.ar 2702  AMP2702     0.1473
      4  C05      190.5710  200.3730  234.3550 C.ar 2702  AMP2702     0.1674
      5  C08      189.0260  198.9250  233.9200 C.ar 2702  AMP2702     0.1004
      6  C10      188.4730  200.5810  235.6970 C.3  2702  AMP2702     0.1667
      7  C11      187.9790  201.6930  235.2300 C.3  2702  AMP2702     0.1285
      8  C12      186.3920  201.7630  235.7810 C.3  2702  AMP2702     0.1135
      9  C13      185.9710  200.5840  235.7350 C.3  2702  AMP2702     0.1134
     10  C15      185.3800  200.2620  234.3420 C.3  2702  AMP2702     0.0878
     11  N02      193.0270  200.7400  233.3260 N.ar 2702  AMP2702    -0.2188
     12  N06      191.3650  201.3580  234.7930 N.ar 2702  AMP2702    -0.2159
     13  N07      189.3370  199.9630  234.6730 N.ar 2702  AMP2702    -0.2855
     14  N09      190.0380  198.6470  233.1160 N.ar 2702  AMP2702    -0.2306
     15  N31      192.8170  198.8930  231.8000 N.pl32702  AMP2702    -0.3413
     16  O14      187.2720  199.6720  235.9970 O.3  2702  AMP2702    -0.3456
     17  O16      184.9250  198.9420  234.3670 O.3  2702  AMP2702    -0.2841
     18  O18      183.0890  197.2290  233.7990 O.3  2702  AMP2702    -0.3026
     19  O19      182.7540  199.5720  233.1330 O.2  2702  AMP2702    -0.2275
     20  O20      182.5520  198.9590  235.6330 O.3  2702  AMP2702    -0.3026
     21  O29      186.3690  202.2480  237.1570 O.3  2702  AMP2702    -0.3864
     22  O30      188.7170  202.8030  235.7380 O.3  2702  AMP2702    -0.3847
     23  P17      183.3110  198.6660  234.2020 P.3  2702  AMP2702     0.4724
     24 H011      193.1960  202.3370  234.6530 H    2702  AMP2702     0.1048
     25 H081      188.0880  198.3830  233.9570 H    2702  AMP2702     0.1030
     26 H101      189.0340  200.7730  236.6050 H    2702  AMP2702     0.0866
     27 H111      187.9990  201.6860  234.1450 H    2702  AMP2702     0.0665
     28 H121      185.8010  202.4070  235.1400 H    2702  AMP2702     0.0647
     29 H131      185.2330  200.4180  236.5130 H    2702  AMP2702     0.0647
     30 H151      184.5510  200.9280  234.1230 H    2702  AMP2702     0.0592
     31 H152      186.1470  200.3700  233.5830 H    2702  AMP2702     0.0592
     32 H291      185.4840  202.4720  237.3960 H    2702  AMP2702     0.2100
     33 H301      188.2530  203.1800  236.4700 H    2702  AMP2702     0.2101
     34 H311      192.2810  198.1080  231.4820 H    2702  AMP2702     0.1438
     35 H312      193.7120  199.0870  231.3920 H    2702  AMP2702     0.1438
     36 H         183.5364  197.0569  232.9557 H    2702  AMP2702     0.2220
     37 H         181.6010  198.7958  235.5339 H    2702  AMP2702     0.2220
@<TRIPOS>BOND
     1    35    15    1
     2    34    15    1
     3    15     2    1
     4     2    11   ar
     5     2     3   ar
     6    14     3   ar
     7    14     5   ar
     8    19    23    2
     9    11     1   ar
    10     3     4   ar
    11    31    10    1
    12    18    23    1
    13     5    25    1
    14     5    13   ar
    15    30    10    1
    16    27     7    1
    17    23    17    1
    18    23    20    1
    19     1    24    1
    20     1    12   ar
    21    10    17    1
    22    10     9    1
    23     4    13   ar
    24     4    12   ar
    25    13     6    1
    26    28     8    1
    27     7     6    1
    28     7    22    1
    29     7     8    1
    30     6    16    1
    31     6    26    1
    32     9     8    1
    33     9    16    1
    34     9    29    1
    35    22    33    1
    36     8    21    1
    37    21    32    1
    38    18    36    1
    39    20    37    1
