@<TRIPOS>MOLECULE
rnu/ip3rt2_jd_rnug_hetb.pdb
 33 35 0 0 0
SMALL
GASTEIGER

@<TRIPOS>ATOM
      1  C5'      190.7590  202.4840  237.3200 C.3  2702  RNU2702     0.0730
      2  O5'      191.5030  202.7960  236.1500 O.3  2702  RNU2702    -0.3924
      3  C4'      189.3220  202.0240  236.9990 C.3  2702  RNU2702     0.1126
      4  O4'      189.2930  200.9450  236.0480 O.3  2702  RNU2702    -0.3457
      5  C3'      188.4030  203.1320  236.4390 C.3  2702  RNU2702     0.1135
      6  O3'      187.1430  203.1180  237.1060 O.3  2702  RNU2702    -0.3864
      7  C2'      188.1910  202.7410  234.9720 C.3  2702  RNU2702     0.1285
      8  O2'      189.1650  203.3670  234.1370 O.3  2702  RNU2702    -0.3847
      9  C1'      188.3170  201.2040  235.0330 C.3  2702  RNU2702     0.1667
     10  N1       192.0790  199.5360  231.8170 N.ar 2702  RNU2702    -0.2934
     11  C2       192.2580  200.1440  233.0720 C.ar 2702  RNU2702     0.1950
     12  N2       193.5460  200.3210  233.4850 N.pl32702  RNU2702    -0.3289
     13  N3       191.1740  200.5250  233.8090 N.ar 2702  RNU2702    -0.1963
     14  C4       189.9730  200.2800  233.2540 C.ar 2702  RNU2702     0.1712
     15  C5       189.7590  199.6740  231.9950 C.ar 2702  RNU2702     0.1721
     16  C6       190.8450  199.2630  231.2000 C.ar 2702  RNU2702     0.2803
     17  O6       190.8140  198.7230  230.0900 O.2  2702  RNU2702    -0.2654
     18  N7       188.4150  199.5890  231.7350 N.ar 2702  RNU2702    -0.2286
     19  C8       187.8300  200.1240  232.7940 C.ar 2702  RNU2702     0.1005
     20  N9       188.7150  200.5570  233.7540 N.ar 2702  RNU2702    -0.2854
     21  H1       192.9120  199.2730  231.3120 H    2702  RNU2702     0.1716
     22  H8       186.7520  200.2190  232.9210 H    2702  RNU2702     0.1030
     23  H21      194.3200  200.0310  232.9220 H    2702  RNU2702     0.1451
     24  H22      193.7590  200.7460  234.3660 H    2702  RNU2702     0.1451
     25  H5T      192.3750  203.0610  236.4510 H    2702  RNU2702     0.2095
     26 H12'      187.3740  200.7770  235.4100 H    2702  RNU2702     0.0866
     27 H21'      187.2080  203.0500  234.5880 H    2702  RNU2702     0.0665
     28 H22'      188.7680  203.5600  233.2840 H    2702  RNU2702     0.2101
     29 H31'      188.8290  204.1360  236.5620 H    2702  RNU2702     0.0647
     30 H32'      187.0960  203.8720  237.7000 H    2702  RNU2702     0.2100
     31 H42'      188.9090  201.6130  237.9360 H    2702  RNU2702     0.0647
     32 H51'      191.2950  201.6720  237.8570 H    2702  RNU2702     0.0584
     33 H52'      190.7310  203.3800  237.9780 H    2702  RNU2702     0.0584
@<TRIPOS>BOND
     1    17    16    2
     2    16    10   ar
     3    16    15   ar
     4    21    10    1
     5    18    15   ar
     6    18    19   ar
     7    10    11   ar
     8    15    14   ar
     9    19    22    1
    10    19    20   ar
    11    23    12    1
    12    11    12    1
    13    11    13   ar
    14    14    20   ar
    15    14    13   ar
    16    28     8    1
    17    12    24    1
    18    20     9    1
    19     8     7    1
    20    27     7    1
    21     7     9    1
    22     7     5    1
    23     9    26    1
    24     9     4    1
    25     4     3    1
    26     2    25    1
    27     2     1    1
    28     5    29    1
    29     5     3    1
    30     5     6    1
    31     3     1    1
    32     3    31    1
    33     6    30    1
    34     1    32    1
    35     1    33    1
