@<TRIPOS>MOLECULE
adn/ip3r_jd_adn_hetb.pdb
 32 34 0 0 0
SMALL
GASTEIGER

@<TRIPOS>ATOM
      1  C01      192.5710  201.5340  234.2840 C.ar 2702  ADN2702     0.1205
      2  C03      192.2960  199.7470  232.8480 C.ar 2702  ADN2702     0.1472
      3  C04      191.0130  199.5320  233.3640 C.ar 2702  ADN2702     0.1473
      4  C05      190.5710  200.3730  234.3550 C.ar 2702  ADN2702     0.1674
      5  C08      189.0260  198.9250  233.9200 C.ar 2702  ADN2702     0.1004
      6  C10      188.4730  200.5810  235.6970 C.3  2702  ADN2702     0.1667
      7  C11      187.9790  201.6930  235.2300 C.3  2702  ADN2702     0.1285
      8  C12      186.3920  201.7630  235.7810 C.3  2702  ADN2702     0.1135
      9  C13      185.9710  200.5840  235.7350 C.3  2702  ADN2702     0.1126
     10  C15      185.3800  200.2620  234.3420 C.3  2702  ADN2702     0.0730
     11  N02      193.0270  200.7400  233.3260 N.ar 2702  ADN2702    -0.2188
     12  N06      191.3650  201.3580  234.7930 N.ar 2702  ADN2702    -0.2159
     13  N07      189.3370  199.9630  234.6730 N.ar 2702  ADN2702    -0.2855
     14  N09      190.0380  198.6470  233.1160 N.ar 2702  ADN2702    -0.2306
     15  N31      192.8170  198.8930  231.8000 N.pl32702  ADN2702    -0.3413
     16  O14      187.2720  199.6720  235.9970 O.3  2702  ADN2702    -0.3457
     17  O16      184.9250  198.9420  234.3670 O.3  2702  ADN2702    -0.3924
     18  O29      186.3690  202.2480  237.1570 O.3  2702  ADN2702    -0.3864
     19  O30      188.7170  202.8030  235.7380 O.3  2702  ADN2702    -0.3847
     20 H011      193.1960  202.3370  234.6530 H    2702  ADN2702     0.1048
     21 H081      188.0880  198.3830  233.9570 H    2702  ADN2702     0.1030
     22 H101      189.0340  200.7730  236.6050 H    2702  ADN2702     0.0866
     23 H111      187.9990  201.6860  234.1450 H    2702  ADN2702     0.0665
     24 H121      185.8010  202.4070  235.1400 H    2702  ADN2702     0.0647
     25 H131      185.2330  200.4180  236.5130 H    2702  ADN2702     0.0647
     26 H151      184.5510  200.9280  234.1230 H    2702  ADN2702     0.0584
     27 H152      186.1470  200.3700  233.5830 H    2702  ADN2702     0.0584
     28 H291      185.4840  202.4720  237.3960 H    2702  ADN2702     0.2100
     29 H301      188.2530  203.1800  236.4700 H    2702  ADN2702     0.2101
     30 H311      192.2810  198.1080  231.4820 H    2702  ADN2702     0.1438
     31 H312      193.7120  199.0870  231.3920 H    2702  ADN2702     0.1438
     32 H         184.5483  198.7134  233.5029 H    2702  ADN2702     0.2095
@<TRIPOS>BOND
     1    31    15    1
     2    30    15    1
     3    15     2    1
     4     2    11   ar
     5     2     3   ar
     6    14     3   ar
     7    14     5   ar
     8    11     1   ar
     9     3     4   ar
    10    27    10    1
    11     5    21    1
    12     5    13   ar
    13    26    10    1
    14    23     7    1
    15     1    20    1
    16     1    12   ar
    17    10    17    1
    18    10     9    1
    19     4    13   ar
    20     4    12   ar
    21    13     6    1
    22    24     8    1
    23     7     6    1
    24     7    19    1
    25     7     8    1
    26     6    16    1
    27     6    22    1
    28     9     8    1
    29     9    16    1
    30     9    25    1
    31    19    29    1
    32     8    18    1
    33    18    28    1
    34    17    32    1
